11        
cys
N -0.663909 -1.577636 -0.633364
C -0.104909 -0.228636 -0.633364
C 1.405091 -0.268636 -0.633364
O 2.034091 -1.336636 -0.633364
C -0.673909 0.537364 0.576636
S -0.162909 2.270364 0.534636
H -0.035909 -2.456636 -0.633364
H -0.419909 0.277364 -1.564364
H -0.348909 0.082364 1.534636
H -1.777909 0.509364 0.584636
H 0.749091 2.191364 1.500636
